Circuit: * C:\Users\026538081\Desktop\EE526\HW3\Draft1.asc

Ignoring BSIM parameter XL
Ignoring BSIM parameter XW
Warning: Pd = 0 is less than W.
Warning: Ps = 0 is less than W.
Direct Newton iteration for .op point succeeded.

Date: Sat Nov  9 16:55:14 2024
Total elapsed time: 0.198 seconds.

tnom = 27
temp = 27
method = modified trap
totiter = 2087
traniter = 2082
tranpoints = 1042
accept = 1042
rejected = 0
matrix size = 6
fillins = 0
solver = Normal
Avg thread counts: 2.3/3.6/3.6/2.3
Matrix Compiler1:      11 opcodes  0.2/[0.1]/0.2
Matrix Compiler2: off  [0.1]/0.2/0.1

