Circuit: * C:\Users\026538081\Desktop\EE526\CML_OSCILLATOR\HW3.asc

Ignoring BSIM parameter XL
Ignoring BSIM parameter XW
Warning: Pd = 0 is less than W.
Warning: Ps = 0 is less than W.
Direct Newton iteration for .op point succeeded.

Date: Tue Jan  7 13:49:44 2025
Total elapsed time: 0.654 seconds.

tnom = 27
temp = 27
method = modified trap
totiter = 40040
traniter = 40034
tranpoints = 20018
accept = 20018
rejected = 0
matrix size = 11
fillins = 18
solver = Normal
Avg thread counts: 1.1/1.1/1.1/1.1
Matrix Compiler1: 2.75 KB object code size  0.8/0.6/[0.4]
Matrix Compiler2: 1.54 KB object code size  0.3/0.4/[0.2]

